# generated using pymatgen
data_Na2LiO
_symmetry_space_group_name_H-M   'P 1'
_cell_length_a   12.00000000
_cell_length_b   12.00000000
_cell_length_c   12.00000000
_cell_angle_alpha   90.00000000
_cell_angle_beta   90.00000000
_cell_angle_gamma   90.00000000
_symmetry_Int_Tables_number   1
_chemical_formula_structural   Na2LiO
_chemical_formula_sum   'Na216 Li108 O108'
_cell_volume   1728.00000000
_cell_formula_units_Z   108
loop_
 _symmetry_equiv_pos_site_id
 _symmetry_equiv_pos_as_xyz
  1  'x, y, z'
loop_
 _atom_site_type_symbol
 _atom_site_label
 _atom_site_symmetry_multiplicity
 _atom_site_fract_x
 _atom_site_fract_y
 _atom_site_fract_z
 _atom_site_occupancy
  O  O0  1  0.00000000  0.00000000  0.00000000  1
  O  O1  1  0.00000000  0.00000000  0.33333333  1
  O  O2  1  0.00000000  0.00000000  0.66666667  1
  O  O3  1  0.00000000  0.33333333  0.00000000  1
  O  O4  1  0.00000000  0.33333333  0.33333333  1
  O  O5  1  0.00000000  0.33333333  0.66666667  1
  O  O6  1  0.00000000  0.66666667  0.00000000  1
  O  O7  1  0.00000000  0.66666667  0.33333333  1
  O  O8  1  0.00000000  0.66666667  0.66666667  1
  O  O9  1  0.33333333  0.00000000  0.00000000  1
  O  O10  1  0.33333333  0.00000000  0.33333333  1
  O  O11  1  0.33333333  0.00000000  0.66666667  1
  O  O12  1  0.33333333  0.33333333  0.00000000  1
  O  O13  1  0.33333333  0.33333333  0.33333333  1
  O  O14  1  0.33333333  0.33333333  0.66666667  1
  O  O15  1  0.33333333  0.66666667  0.00000000  1
  O  O16  1  0.33333333  0.66666667  0.33333333  1
  O  O17  1  0.33333333  0.66666667  0.66666667  1
  O  O18  1  0.66666667  0.00000000  0.00000000  1
  O  O19  1  0.66666667  0.00000000  0.33333333  1
  O  O20  1  0.66666667  0.00000000  0.66666667  1
  O  O21  1  0.66666667  0.33333333  0.00000000  1
  O  O22  1  0.66666667  0.33333333  0.33333333  1
  O  O23  1  0.66666667  0.33333333  0.66666667  1
  O  O24  1  0.66666667  0.66666667  0.00000000  1
  O  O25  1  0.66666667  0.66666667  0.33333333  1
  O  O26  1  0.66666667  0.66666667  0.66666667  1
  O  O27  1  0.16666667  0.16666667  0.00000000  1
  O  O28  1  0.16666667  0.16666667  0.33333333  1
  O  O29  1  0.16666667  0.16666667  0.66666667  1
  O  O30  1  0.16666667  0.50000000  0.00000000  1
  O  O31  1  0.16666667  0.50000000  0.33333333  1
  O  O32  1  0.16666667  0.50000000  0.66666667  1
  O  O33  1  0.16666667  0.83333333  0.00000000  1
  O  O34  1  0.16666667  0.83333333  0.33333333  1
  O  O35  1  0.16666667  0.83333333  0.66666667  1
  O  O36  1  0.50000000  0.16666667  0.00000000  1
  O  O37  1  0.50000000  0.16666667  0.33333333  1
  O  O38  1  0.50000000  0.16666667  0.66666667  1
  O  O39  1  0.50000000  0.50000000  0.00000000  1
  O  O40  1  0.50000000  0.50000000  0.33333333  1
  O  O41  1  0.50000000  0.50000000  0.66666667  1
  O  O42  1  0.50000000  0.83333333  0.00000000  1
  O  O43  1  0.50000000  0.83333333  0.33333333  1
  O  O44  1  0.50000000  0.83333333  0.66666667  1
  O  O45  1  0.83333333  0.16666667  0.00000000  1
  O  O46  1  0.83333333  0.16666667  0.33333333  1
  O  O47  1  0.83333333  0.16666667  0.66666667  1
  O  O48  1  0.83333333  0.50000000  0.00000000  1
  O  O49  1  0.83333333  0.50000000  0.33333333  1
  O  O50  1  0.83333333  0.50000000  0.66666667  1
  O  O51  1  0.83333333  0.83333333  0.00000000  1
  O  O52  1  0.83333333  0.83333333  0.33333333  1
  O  O53  1  0.83333333  0.83333333  0.66666667  1
  O  O54  1  0.16666667  0.00000000  0.16666667  1
  O  O55  1  0.16666667  0.00000000  0.50000000  1
  O  O56  1  0.16666667  0.00000000  0.83333333  1
  O  O57  1  0.16666667  0.33333333  0.16666667  1
  O  O58  1  0.16666667  0.33333333  0.50000000  1
  O  O59  1  0.16666667  0.33333333  0.83333333  1
  O  O60  1  0.16666667  0.66666667  0.16666667  1
  O  O61  1  0.16666667  0.66666667  0.50000000  1
  O  O62  1  0.16666667  0.66666667  0.83333333  1
  O  O63  1  0.50000000  0.00000000  0.16666667  1
  O  O64  1  0.50000000  0.00000000  0.50000000  1
  O  O65  1  0.50000000  0.00000000  0.83333333  1
  O  O66  1  0.50000000  0.33333333  0.16666667  1
  O  O67  1  0.50000000  0.33333333  0.50000000  1
  O  O68  1  0.50000000  0.33333333  0.83333333  1
  O  O69  1  0.50000000  0.66666667  0.16666667  1
  O  O70  1  0.50000000  0.66666667  0.50000000  1
  O  O71  1  0.50000000  0.66666667  0.83333333  1
  O  O72  1  0.83333333  0.00000000  0.16666667  1
  O  O73  1  0.83333333  0.00000000  0.50000000  1
  O  O74  1  0.83333333  0.00000000  0.83333333  1
  O  O75  1  0.83333333  0.33333333  0.16666667  1
  O  O76  1  0.83333333  0.33333333  0.50000000  1
  O  O77  1  0.83333333  0.33333333  0.83333333  1
  O  O78  1  0.83333333  0.66666667  0.16666667  1
  O  O79  1  0.83333333  0.66666667  0.50000000  1
  O  O80  1  0.83333333  0.66666667  0.83333333  1
  O  O81  1  0.00000000  0.16666667  0.16666667  1
  O  O82  1  0.00000000  0.16666667  0.50000000  1
  O  O83  1  0.00000000  0.16666667  0.83333333  1
  O  O84  1  0.00000000  0.50000000  0.16666667  1
  O  O85  1  0.00000000  0.50000000  0.50000000  1
  O  O86  1  0.00000000  0.50000000  0.83333333  1
  O  O87  1  0.00000000  0.83333333  0.16666667  1
  O  O88  1  0.00000000  0.83333333  0.50000000  1
  O  O89  1  0.00000000  0.83333333  0.83333333  1
  O  O90  1  0.33333333  0.16666667  0.16666667  1
  O  O91  1  0.33333333  0.16666667  0.50000000  1
  O  O92  1  0.33333333  0.16666667  0.83333333  1
  O  O93  1  0.33333333  0.50000000  0.16666667  1
  O  O94  1  0.33333333  0.50000000  0.50000000  1
  O  O95  1  0.33333333  0.50000000  0.83333333  1
  O  O96  1  0.33333333  0.83333333  0.16666667  1
  O  O97  1  0.33333333  0.83333333  0.50000000  1
  O  O98  1  0.33333333  0.83333333  0.83333333  1
  O  O99  1  0.66666667  0.16666667  0.16666667  1
  O  O100  1  0.66666667  0.16666667  0.50000000  1
  O  O101  1  0.66666667  0.16666667  0.83333333  1
  O  O102  1  0.66666667  0.50000000  0.16666667  1
  O  O103  1  0.66666667  0.50000000  0.50000000  1
  O  O104  1  0.66666667  0.50000000  0.83333333  1
  O  O105  1  0.66666667  0.83333333  0.16666667  1
  O  O106  1  0.66666667  0.83333333  0.50000000  1
  O  O107  1  0.66666667  0.83333333  0.83333333  1
  Li  Li108  1  0.16666667  0.00000000  0.00000000  1
  Li  Li109  1  0.16666667  0.00000000  0.33333333  1
  Li  Li110  1  0.16666667  0.00000000  0.66666667  1
  Li  Li111  1  0.16666667  0.33333333  0.00000000  1
  Li  Li112  1  0.16666667  0.33333333  0.33333333  1
  Li  Li113  1  0.16666667  0.33333333  0.66666667  1
  Li  Li114  1  0.16666667  0.66666667  0.00000000  1
  Li  Li115  1  0.16666667  0.66666667  0.33333333  1
  Li  Li116  1  0.16666667  0.66666667  0.66666667  1
  Li  Li117  1  0.50000000  0.00000000  0.00000000  1
  Li  Li118  1  0.50000000  0.00000000  0.33333333  1
  Li  Li119  1  0.50000000  0.00000000  0.66666667  1
  Li  Li120  1  0.50000000  0.33333333  0.00000000  1
  Li  Li121  1  0.50000000  0.33333333  0.33333333  1
  Li  Li122  1  0.50000000  0.33333333  0.66666667  1
  Li  Li123  1  0.50000000  0.66666667  0.00000000  1
  Li  Li124  1  0.50000000  0.66666667  0.33333333  1
  Li  Li125  1  0.50000000  0.66666667  0.66666667  1
  Li  Li126  1  0.83333333  0.00000000  0.00000000  1
  Li  Li127  1  0.83333333  0.00000000  0.33333333  1
  Li  Li128  1  0.83333333  0.00000000  0.66666667  1
  Li  Li129  1  0.83333333  0.33333333  0.00000000  1
  Li  Li130  1  0.83333333  0.33333333  0.33333333  1
  Li  Li131  1  0.83333333  0.33333333  0.66666667  1
  Li  Li132  1  0.83333333  0.66666667  0.00000000  1
  Li  Li133  1  0.83333333  0.66666667  0.33333333  1
  Li  Li134  1  0.83333333  0.66666667  0.66666667  1
  Li  Li135  1  0.00000000  0.16666667  0.00000000  1
  Li  Li136  1  0.00000000  0.16666667  0.33333333  1
  Li  Li137  1  0.00000000  0.16666667  0.66666667  1
  Li  Li138  1  0.00000000  0.50000000  0.00000000  1
  Li  Li139  1  0.00000000  0.50000000  0.33333333  1
  Li  Li140  1  0.00000000  0.50000000  0.66666667  1
  Li  Li141  1  0.00000000  0.83333333  0.00000000  1
  Li  Li142  1  0.00000000  0.83333333  0.33333333  1
  Li  Li143  1  0.00000000  0.83333333  0.66666667  1
  Li  Li144  1  0.33333333  0.16666667  0.00000000  1
  Li  Li145  1  0.33333333  0.16666667  0.33333333  1
  Li  Li146  1  0.33333333  0.16666667  0.66666667  1
  Li  Li147  1  0.33333333  0.50000000  0.00000000  1
  Li  Li148  1  0.33333333  0.50000000  0.33333333  1
  Li  Li149  1  0.33333333  0.50000000  0.66666667  1
  Li  Li150  1  0.33333333  0.83333333  0.00000000  1
  Li  Li151  1  0.33333333  0.83333333  0.33333333  1
  Li  Li152  1  0.33333333  0.83333333  0.66666667  1
  Li  Li153  1  0.66666667  0.16666667  0.00000000  1
  Li  Li154  1  0.66666667  0.16666667  0.33333333  1
  Li  Li155  1  0.66666667  0.16666667  0.66666667  1
  Li  Li156  1  0.66666667  0.50000000  0.00000000  1
  Li  Li157  1  0.66666667  0.50000000  0.33333333  1
  Li  Li158  1  0.66666667  0.50000000  0.66666667  1
  Li  Li159  1  0.66666667  0.83333333  0.00000000  1
  Li  Li160  1  0.66666667  0.83333333  0.33333333  1
  Li  Li161  1  0.66666667  0.83333333  0.66666667  1
  Li  Li162  1  0.00000000  0.00000000  0.16666667  1
  Li  Li163  1  0.00000000  0.00000000  0.50000000  1
  Li  Li164  1  0.00000000  0.00000000  0.83333333  1
  Li  Li165  1  0.00000000  0.33333333  0.16666667  1
  Li  Li166  1  0.00000000  0.33333333  0.50000000  1
  Li  Li167  1  0.00000000  0.33333333  0.83333333  1
  Li  Li168  1  0.00000000  0.66666667  0.16666667  1
  Li  Li169  1  0.00000000  0.66666667  0.50000000  1
  Li  Li170  1  0.00000000  0.66666667  0.83333333  1
  Li  Li171  1  0.33333333  0.00000000  0.16666667  1
  Li  Li172  1  0.33333333  0.00000000  0.50000000  1
  Li  Li173  1  0.33333333  0.00000000  0.83333333  1
  Li  Li174  1  0.33333333  0.33333333  0.16666667  1
  Li  Li175  1  0.33333333  0.33333333  0.50000000  1
  Li  Li176  1  0.33333333  0.33333333  0.83333333  1
  Li  Li177  1  0.33333333  0.66666667  0.16666667  1
  Li  Li178  1  0.33333333  0.66666667  0.50000000  1
  Li  Li179  1  0.33333333  0.66666667  0.83333333  1
  Li  Li180  1  0.66666667  0.00000000  0.16666667  1
  Li  Li181  1  0.66666667  0.00000000  0.50000000  1
  Li  Li182  1  0.66666667  0.00000000  0.83333333  1
  Li  Li183  1  0.66666667  0.33333333  0.16666667  1
  Li  Li184  1  0.66666667  0.33333333  0.50000000  1
  Li  Li185  1  0.66666667  0.33333333  0.83333333  1
  Li  Li186  1  0.66666667  0.66666667  0.16666667  1
  Li  Li187  1  0.66666667  0.66666667  0.50000000  1
  Li  Li188  1  0.66666667  0.66666667  0.83333333  1
  Li  Li189  1  0.16666667  0.16666667  0.16666667  1
  Li  Li190  1  0.16666667  0.16666667  0.50000000  1
  Li  Li191  1  0.16666667  0.16666667  0.83333333  1
  Li  Li192  1  0.16666667  0.50000000  0.16666667  1
  Li  Li193  1  0.16666667  0.50000000  0.50000000  1
  Li  Li194  1  0.16666667  0.50000000  0.83333333  1
  Li  Li195  1  0.16666667  0.83333333  0.16666667  1
  Li  Li196  1  0.16666667  0.83333333  0.50000000  1
  Li  Li197  1  0.16666667  0.83333333  0.83333333  1
  Li  Li198  1  0.50000000  0.16666667  0.16666667  1
  Li  Li199  1  0.50000000  0.16666667  0.50000000  1
  Li  Li200  1  0.50000000  0.16666667  0.83333333  1
  Li  Li201  1  0.50000000  0.50000000  0.16666667  1
  Li  Li202  1  0.50000000  0.50000000  0.50000000  1
  Li  Li203  1  0.50000000  0.50000000  0.83333333  1
  Li  Li204  1  0.50000000  0.83333333  0.16666667  1
  Li  Li205  1  0.50000000  0.83333333  0.50000000  1
  Li  Li206  1  0.50000000  0.83333333  0.83333333  1
  Li  Li207  1  0.83333333  0.16666667  0.16666667  1
  Li  Li208  1  0.83333333  0.16666667  0.50000000  1
  Li  Li209  1  0.83333333  0.16666667  0.83333333  1
  Li  Li210  1  0.83333333  0.50000000  0.16666667  1
  Li  Li211  1  0.83333333  0.50000000  0.50000000  1
  Li  Li212  1  0.83333333  0.50000000  0.83333333  1
  Li  Li213  1  0.83333333  0.83333333  0.16666667  1
  Li  Li214  1  0.83333333  0.83333333  0.50000000  1
  Li  Li215  1  0.83333333  0.83333333  0.83333333  1
  Na  Na216  1  0.25000000  0.08333333  0.25000000  1
  Na  Na217  1  0.25000000  0.08333333  0.58333333  1
  Na  Na218  1  0.25000000  0.08333333  0.91666667  1
  Na  Na219  1  0.25000000  0.41666667  0.25000000  1
  Na  Na220  1  0.25000000  0.41666667  0.58333333  1
  Na  Na221  1  0.25000000  0.41666667  0.91666667  1
  Na  Na222  1  0.25000000  0.75000000  0.25000000  1
  Na  Na223  1  0.25000000  0.75000000  0.58333333  1
  Na  Na224  1  0.25000000  0.75000000  0.91666667  1
  Na  Na225  1  0.58333333  0.08333333  0.25000000  1
  Na  Na226  1  0.58333333  0.08333333  0.58333333  1
  Na  Na227  1  0.58333333  0.08333333  0.91666667  1
  Na  Na228  1  0.58333333  0.41666667  0.25000000  1
  Na  Na229  1  0.58333333  0.41666667  0.58333333  1
  Na  Na230  1  0.58333333  0.41666667  0.91666667  1
  Na  Na231  1  0.58333333  0.75000000  0.25000000  1
  Na  Na232  1  0.58333333  0.75000000  0.58333333  1
  Na  Na233  1  0.58333333  0.75000000  0.91666667  1
  Na  Na234  1  0.91666667  0.08333333  0.25000000  1
  Na  Na235  1  0.91666667  0.08333333  0.58333333  1
  Na  Na236  1  0.91666667  0.08333333  0.91666667  1
  Na  Na237  1  0.91666667  0.41666667  0.25000000  1
  Na  Na238  1  0.91666667  0.41666667  0.58333333  1
  Na  Na239  1  0.91666667  0.41666667  0.91666667  1
  Na  Na240  1  0.91666667  0.75000000  0.25000000  1
  Na  Na241  1  0.91666667  0.75000000  0.58333333  1
  Na  Na242  1  0.91666667  0.75000000  0.91666667  1
  Na  Na243  1  0.25000000  0.08333333  0.08333333  1
  Na  Na244  1  0.25000000  0.08333333  0.41666667  1
  Na  Na245  1  0.25000000  0.08333333  0.75000000  1
  Na  Na246  1  0.25000000  0.41666667  0.08333333  1
  Na  Na247  1  0.25000000  0.41666667  0.41666667  1
  Na  Na248  1  0.25000000  0.41666667  0.75000000  1
  Na  Na249  1  0.25000000  0.75000000  0.08333333  1
  Na  Na250  1  0.25000000  0.75000000  0.41666667  1
  Na  Na251  1  0.25000000  0.75000000  0.75000000  1
  Na  Na252  1  0.58333333  0.08333333  0.08333333  1
  Na  Na253  1  0.58333333  0.08333333  0.41666667  1
  Na  Na254  1  0.58333333  0.08333333  0.75000000  1
  Na  Na255  1  0.58333333  0.41666667  0.08333333  1
  Na  Na256  1  0.58333333  0.41666667  0.41666667  1
  Na  Na257  1  0.58333333  0.41666667  0.75000000  1
  Na  Na258  1  0.58333333  0.75000000  0.08333333  1
  Na  Na259  1  0.58333333  0.75000000  0.41666667  1
  Na  Na260  1  0.58333333  0.75000000  0.75000000  1
  Na  Na261  1  0.91666667  0.08333333  0.08333333  1
  Na  Na262  1  0.91666667  0.08333333  0.41666667  1
  Na  Na263  1  0.91666667  0.08333333  0.75000000  1
  Na  Na264  1  0.91666667  0.41666667  0.08333333  1
  Na  Na265  1  0.91666667  0.41666667  0.41666667  1
  Na  Na266  1  0.91666667  0.41666667  0.75000000  1
  Na  Na267  1  0.91666667  0.75000000  0.08333333  1
  Na  Na268  1  0.91666667  0.75000000  0.41666667  1
  Na  Na269  1  0.91666667  0.75000000  0.75000000  1
  Na  Na270  1  0.25000000  0.25000000  0.08333333  1
  Na  Na271  1  0.25000000  0.25000000  0.41666667  1
  Na  Na272  1  0.25000000  0.25000000  0.75000000  1
  Na  Na273  1  0.25000000  0.58333333  0.08333333  1
  Na  Na274  1  0.25000000  0.58333333  0.41666667  1
  Na  Na275  1  0.25000000  0.58333333  0.75000000  1
  Na  Na276  1  0.25000000  0.91666667  0.08333333  1
  Na  Na277  1  0.25000000  0.91666667  0.41666667  1
  Na  Na278  1  0.25000000  0.91666667  0.75000000  1
  Na  Na279  1  0.58333333  0.25000000  0.08333333  1
  Na  Na280  1  0.58333333  0.25000000  0.41666667  1
  Na  Na281  1  0.58333333  0.25000000  0.75000000  1
  Na  Na282  1  0.58333333  0.58333333  0.08333333  1
  Na  Na283  1  0.58333333  0.58333333  0.41666667  1
  Na  Na284  1  0.58333333  0.58333333  0.75000000  1
  Na  Na285  1  0.58333333  0.91666667  0.08333333  1
  Na  Na286  1  0.58333333  0.91666667  0.41666667  1
  Na  Na287  1  0.58333333  0.91666667  0.75000000  1
  Na  Na288  1  0.91666667  0.25000000  0.08333333  1
  Na  Na289  1  0.91666667  0.25000000  0.41666667  1
  Na  Na290  1  0.91666667  0.25000000  0.75000000  1
  Na  Na291  1  0.91666667  0.58333333  0.08333333  1
  Na  Na292  1  0.91666667  0.58333333  0.41666667  1
  Na  Na293  1  0.91666667  0.58333333  0.75000000  1
  Na  Na294  1  0.91666667  0.91666667  0.08333333  1
  Na  Na295  1  0.91666667  0.91666667  0.41666667  1
  Na  Na296  1  0.91666667  0.91666667  0.75000000  1
  Na  Na297  1  0.08333333  0.25000000  0.08333333  1
  Na  Na298  1  0.08333333  0.25000000  0.41666667  1
  Na  Na299  1  0.08333333  0.25000000  0.75000000  1
  Na  Na300  1  0.08333333  0.58333333  0.08333333  1
  Na  Na301  1  0.08333333  0.58333333  0.41666667  1
  Na  Na302  1  0.08333333  0.58333333  0.75000000  1
  Na  Na303  1  0.08333333  0.91666667  0.08333333  1
  Na  Na304  1  0.08333333  0.91666667  0.41666667  1
  Na  Na305  1  0.08333333  0.91666667  0.75000000  1
  Na  Na306  1  0.41666667  0.25000000  0.08333333  1
  Na  Na307  1  0.41666667  0.25000000  0.41666667  1
  Na  Na308  1  0.41666667  0.25000000  0.75000000  1
  Na  Na309  1  0.41666667  0.58333333  0.08333333  1
  Na  Na310  1  0.41666667  0.58333333  0.41666667  1
  Na  Na311  1  0.41666667  0.58333333  0.75000000  1
  Na  Na312  1  0.41666667  0.91666667  0.08333333  1
  Na  Na313  1  0.41666667  0.91666667  0.41666667  1
  Na  Na314  1  0.41666667  0.91666667  0.75000000  1
  Na  Na315  1  0.75000000  0.25000000  0.08333333  1
  Na  Na316  1  0.75000000  0.25000000  0.41666667  1
  Na  Na317  1  0.75000000  0.25000000  0.75000000  1
  Na  Na318  1  0.75000000  0.58333333  0.08333333  1
  Na  Na319  1  0.75000000  0.58333333  0.41666667  1
  Na  Na320  1  0.75000000  0.58333333  0.75000000  1
  Na  Na321  1  0.75000000  0.91666667  0.08333333  1
  Na  Na322  1  0.75000000  0.91666667  0.41666667  1
  Na  Na323  1  0.75000000  0.91666667  0.75000000  1
  Na  Na324  1  0.08333333  0.08333333  0.08333333  1
  Na  Na325  1  0.08333333  0.08333333  0.41666667  1
  Na  Na326  1  0.08333333  0.08333333  0.75000000  1
  Na  Na327  1  0.08333333  0.41666667  0.08333333  1
  Na  Na328  1  0.08333333  0.41666667  0.41666667  1
  Na  Na329  1  0.08333333  0.41666667  0.75000000  1
  Na  Na330  1  0.08333333  0.75000000  0.08333333  1
  Na  Na331  1  0.08333333  0.75000000  0.41666667  1
  Na  Na332  1  0.08333333  0.75000000  0.75000000  1
  Na  Na333  1  0.41666667  0.08333333  0.08333333  1
  Na  Na334  1  0.41666667  0.08333333  0.41666667  1
  Na  Na335  1  0.41666667  0.08333333  0.75000000  1
  Na  Na336  1  0.41666667  0.41666667  0.08333333  1
  Na  Na337  1  0.41666667  0.41666667  0.41666667  1
  Na  Na338  1  0.41666667  0.41666667  0.75000000  1
  Na  Na339  1  0.41666667  0.75000000  0.08333333  1
  Na  Na340  1  0.41666667  0.75000000  0.41666667  1
  Na  Na341  1  0.41666667  0.75000000  0.75000000  1
  Na  Na342  1  0.75000000  0.08333333  0.08333333  1
  Na  Na343  1  0.75000000  0.08333333  0.41666667  1
  Na  Na344  1  0.75000000  0.08333333  0.75000000  1
  Na  Na345  1  0.75000000  0.41666667  0.08333333  1
  Na  Na346  1  0.75000000  0.41666667  0.41666667  1
  Na  Na347  1  0.75000000  0.41666667  0.75000000  1
  Na  Na348  1  0.75000000  0.75000000  0.08333333  1
  Na  Na349  1  0.75000000  0.75000000  0.41666667  1
  Na  Na350  1  0.75000000  0.75000000  0.75000000  1
  Na  Na351  1  0.25000000  0.25000000  0.25000000  1
  Na  Na352  1  0.25000000  0.25000000  0.58333333  1
  Na  Na353  1  0.25000000  0.25000000  0.91666667  1
  Na  Na354  1  0.25000000  0.58333333  0.25000000  1
  Na  Na355  1  0.25000000  0.58333333  0.58333333  1
  Na  Na356  1  0.25000000  0.58333333  0.91666667  1
  Na  Na357  1  0.25000000  0.91666667  0.25000000  1
  Na  Na358  1  0.25000000  0.91666667  0.58333333  1
  Na  Na359  1  0.25000000  0.91666667  0.91666667  1
  Na  Na360  1  0.58333333  0.25000000  0.25000000  1
  Na  Na361  1  0.58333333  0.25000000  0.58333333  1
  Na  Na362  1  0.58333333  0.25000000  0.91666667  1
  Na  Na363  1  0.58333333  0.58333333  0.25000000  1
  Na  Na364  1  0.58333333  0.58333333  0.58333333  1
  Na  Na365  1  0.58333333  0.58333333  0.91666667  1
  Na  Na366  1  0.58333333  0.91666667  0.25000000  1
  Na  Na367  1  0.58333333  0.91666667  0.58333333  1
  Na  Na368  1  0.58333333  0.91666667  0.91666667  1
  Na  Na369  1  0.91666667  0.25000000  0.25000000  1
  Na  Na370  1  0.91666667  0.25000000  0.58333333  1
  Na  Na371  1  0.91666667  0.25000000  0.91666667  1
  Na  Na372  1  0.91666667  0.58333333  0.25000000  1
  Na  Na373  1  0.91666667  0.58333333  0.58333333  1
  Na  Na374  1  0.91666667  0.58333333  0.91666667  1
  Na  Na375  1  0.91666667  0.91666667  0.25000000  1
  Na  Na376  1  0.91666667  0.91666667  0.58333333  1
  Na  Na377  1  0.91666667  0.91666667  0.91666667  1
  Na  Na378  1  0.08333333  0.25000000  0.25000000  1
  Na  Na379  1  0.08333333  0.25000000  0.58333333  1
  Na  Na380  1  0.08333333  0.25000000  0.91666667  1
  Na  Na381  1  0.08333333  0.58333333  0.25000000  1
  Na  Na382  1  0.08333333  0.58333333  0.58333333  1
  Na  Na383  1  0.08333333  0.58333333  0.91666667  1
  Na  Na384  1  0.08333333  0.91666667  0.25000000  1
  Na  Na385  1  0.08333333  0.91666667  0.58333333  1
  Na  Na386  1  0.08333333  0.91666667  0.91666667  1
  Na  Na387  1  0.41666667  0.25000000  0.25000000  1
  Na  Na388  1  0.41666667  0.25000000  0.58333333  1
  Na  Na389  1  0.41666667  0.25000000  0.91666667  1
  Na  Na390  1  0.41666667  0.58333333  0.25000000  1
  Na  Na391  1  0.41666667  0.58333333  0.58333333  1
  Na  Na392  1  0.41666667  0.58333333  0.91666667  1
  Na  Na393  1  0.41666667  0.91666667  0.25000000  1
  Na  Na394  1  0.41666667  0.91666667  0.58333333  1
  Na  Na395  1  0.41666667  0.91666667  0.91666667  1
  Na  Na396  1  0.75000000  0.25000000  0.25000000  1
  Na  Na397  1  0.75000000  0.25000000  0.58333333  1
  Na  Na398  1  0.75000000  0.25000000  0.91666667  1
  Na  Na399  1  0.75000000  0.58333333  0.25000000  1
  Na  Na400  1  0.75000000  0.58333333  0.58333333  1
  Na  Na401  1  0.75000000  0.58333333  0.91666667  1
  Na  Na402  1  0.75000000  0.91666667  0.25000000  1
  Na  Na403  1  0.75000000  0.91666667  0.58333333  1
  Na  Na404  1  0.75000000  0.91666667  0.91666667  1
  Na  Na405  1  0.08333333  0.08333333  0.25000000  1
  Na  Na406  1  0.08333333  0.08333333  0.58333333  1
  Na  Na407  1  0.08333333  0.08333333  0.91666667  1
  Na  Na408  1  0.08333333  0.41666667  0.25000000  1
  Na  Na409  1  0.08333333  0.41666667  0.58333333  1
  Na  Na410  1  0.08333333  0.41666667  0.91666667  1
  Na  Na411  1  0.08333333  0.75000000  0.25000000  1
  Na  Na412  1  0.08333333  0.75000000  0.58333333  1
  Na  Na413  1  0.08333333  0.75000000  0.91666667  1
  Na  Na414  1  0.41666667  0.08333333  0.25000000  1
  Na  Na415  1  0.41666667  0.08333333  0.58333333  1
  Na  Na416  1  0.41666667  0.08333333  0.91666667  1
  Na  Na417  1  0.41666667  0.41666667  0.25000000  1
  Na  Na418  1  0.41666667  0.41666667  0.58333333  1
  Na  Na419  1  0.41666667  0.41666667  0.91666667  1
  Na  Na420  1  0.41666667  0.75000000  0.25000000  1
  Na  Na421  1  0.41666667  0.75000000  0.58333333  1
  Na  Na422  1  0.41666667  0.75000000  0.91666667  1
  Na  Na423  1  0.75000000  0.08333333  0.25000000  1
  Na  Na424  1  0.75000000  0.08333333  0.58333333  1
  Na  Na425  1  0.75000000  0.08333333  0.91666667  1
  Na  Na426  1  0.75000000  0.41666667  0.25000000  1
  Na  Na427  1  0.75000000  0.41666667  0.58333333  1
  Na  Na428  1  0.75000000  0.41666667  0.91666667  1
  Na  Na429  1  0.75000000  0.75000000  0.25000000  1
  Na  Na430  1  0.75000000  0.75000000  0.58333333  1
  Na  Na431  1  0.75000000  0.75000000  0.91666667  1
